New Circuit.10DKX-526385_gen_0		bus1=10DKX-526385_bus_0		basekv=10		frequency=50		phases=3		MVAsc1=8.35		
