New circuit.fxx913		bus1=fxx913_0		basekv=10		frequency=50		phases=3		MVAsc1=8.35		
