New Loadshape.storageshape0		npts=96		interval=0.25		mult=[0.3 -0.5 0.7 -0.5 0.3 -0.5 0.7 -0.5 0.3 -0.5 0.7 -0.5 0.3 -0.5 0.7 -0.5 0.3 -0.5 0.7 -0.5 0.6 -0.5 0.4 -0.5 0.3 -0.5 0.7 -0.5 0.3 -0.5 0.7 -0.5 0.3 -0.5 0.7 -0.5 0.3 -0.5 0.7 -0.5 0.3 -0.5 0.7 -0.5 0.6 -0.5 0.4 -0.5 0.3 -0.5 0.7 -0.5 0.3 -0.5 0.7 -0.5 0.3 -0.5 0.7 -0.5 0.3 -0.5 0.7 -0.5 0.3 -0.5 0.7 -0.5 0.6 -0.5 0.4 -0.5 0.3 -0.5 0.7 -0.5 0.3 -0.5 0.7 -0.5 0.3 -0.5 0.7 -0.5 0.3 -0.5 0.7 -0.5 0.3 -0.5 0.7 -0.5 0.6 -0.5 0.4 -0.5]		
New Loadshape.storageshape1		npts=96		interval=0.25		mult=[0.3 -0.5 0.7 -0.5 0.3 -0.5 0.7 -0.5 0.3 -0.5 0.7 -0.5 0.3 -0.5 0.7 -0.5 0.3 -0.5 0.7 -0.5 0.6 -0.5 0.4 -0.5 0.3 -0.5 0.7 -0.5 0.3 -0.5 0.7 -0.5 0.3 -0.5 0.7 -0.5 0.3 -0.5 0.7 -0.5 0.3 -0.5 0.7 -0.5 0.6 -0.5 0.4 -0.5 0.3 -0.5 0.7 -0.5 0.3 -0.5 0.7 -0.5 0.3 -0.5 0.7 -0.5 0.3 -0.5 0.7 -0.5 0.3 -0.5 0.7 -0.5 0.6 -0.5 0.4 -0.5 0.3 -0.5 0.7 -0.5 0.3 -0.5 0.7 -0.5 0.3 -0.5 0.7 -0.5 0.3 -0.5 0.7 -0.5 0.3 -0.5 0.7 -0.5 0.6 -0.5 0.4 -0.6]		
New Loadshape.storageshape2		npts=96		interval=0.25		mult=[0.3 -0.5 0.7 -0.5 0.3 -0.5 0.7 -0.5 0.3 -0.5 0.7 -0.5 0.3 -0.5 0.7 -0.5 0.3 -0.5 0.7 -0.5 0.6 -0.5 0.4 -0.5 0.3 -0.5 0.7 -0.5 0.3 -0.5 0.7 -0.5 0.3 -0.5 0.7 -0.5 0.3 -0.5 0.7 -0.5 0.3 -0.5 0.7 -0.5 0.6 -0.5 0.4 -0.5 0.3 -0.5 0.7 -0.5 0.3 -0.5 0.7 -0.5 0.3 -0.5 0.7 -0.5 0.3 -0.5 0.7 -0.5 0.3 -0.5 0.7 -0.5 0.6 -0.5 0.4 -0.5 0.3 -0.5 0.7 -0.5 0.3 -0.5 0.7 -0.5 0.3 -0.5 0.7 -0.5 0.3 -0.5 0.7 -0.5 0.3 -0.5 0.7 -0.5 0.6 -0.5 0.4 -0.7]		
New Loadshape.storageshape3		npts=96		interval=0.25		mult=[0.3 -0.5 0.7 -0.5 0.3 -0.5 0.7 -0.5 0.3 -0.5 0.7 -0.5 0.3 -0.5 0.7 -0.5 0.3 -0.5 0.7 -0.5 0.6 -0.5 0.4 -0.5 0.3 -0.5 0.7 -0.5 0.3 -0.5 0.7 -0.5 0.3 -0.5 0.7 -0.5 0.3 -0.5 0.7 -0.5 0.3 -0.5 0.7 -0.5 0.6 -0.5 0.4 -0.5 0.3 -0.5 0.7 -0.5 0.3 -0.5 0.7 -0.5 0.3 -0.5 0.7 -0.5 0.3 -0.5 0.7 -0.5 0.3 -0.5 0.7 -0.5 0.6 -0.5 0.4 -0.5 0.3 -0.5 0.7 -0.5 0.3 -0.5 0.7 -0.5 0.3 -0.5 0.7 -0.5 0.3 -0.5 0.7 -0.5 0.3 -0.5 0.7 -0.5 0.6 -0.5 0.4 -0.8]		
New Loadshape.storageshape4		npts=96		interval=0.25		mult=[0.3 -0.5 0.7 -0.5 0.3 -0.5 0.7 -0.5 0.3 -0.5 0.7 -0.5 0.3 -0.5 0.7 -0.5 0.3 -0.5 0.7 -0.5 0.6 -0.5 0.4 -0.5 0.3 -0.5 0.7 -0.5 0.3 -0.5 0.7 -0.5 0.3 -0.5 0.7 -0.5 0.3 -0.5 0.7 -0.5 0.3 -0.5 0.7 -0.5 0.6 -0.5 0.4 -0.5 0.3 -0.5 0.7 -0.5 0.3 -0.5 0.7 -0.5 0.3 -0.5 0.7 -0.5 0.3 -0.5 0.7 -0.5 0.3 -0.5 0.7 -0.5 0.6 -0.5 0.4 -0.5 0.3 -0.5 0.7 -0.5 0.3 -0.5 0.7 -0.5 0.3 -0.5 0.7 -0.5 0.3 -0.5 0.7 -0.5 0.3 -0.5 0.7 -0.5 0.6 -0.5 0.4 -0.9]		
New Loadshape.storageshape5		npts=96		interval=0.25		mult=[0.3 -0.5 0.7 -0.5 0.3 -0.5 0.7 -0.5 0.3 -0.5 0.7 -0.5 0.3 -0.5 0.7 -0.5 0.3 -0.5 0.7 -0.5 0.6 -0.5 0.4 -0.5 0.3 -0.5 0.7 -0.5 0.3 -0.5 0.7 -0.5 0.3 -0.5 0.7 -0.5 0.3 -0.5 0.7 -0.5 0.3 -0.5 0.7 -0.5 0.6 -0.5 0.4 -0.5 0.3 -0.5 0.7 -0.5 0.3 -0.5 0.7 -0.5 0.3 -0.5 0.7 -0.5 0.3 -0.5 0.7 -0.5 0.3 -0.5 0.7 -0.5 0.6 -0.5 0.4 -0.5 0.3 -0.5 0.7 -0.5 0.3 -0.5 0.7 -0.5 0.3 -0.5 0.7 -0.5 0.3 -0.5 0.7 -0.5 0.3 -0.5 0.7 -0.5 0.6 -0.5 0.4 -0.10]		
New Loadshape.storageshape6		npts=96		interval=0.25		mult=[0.3 -0.5 0.7 -0.5 0.3 -0.5 0.7 -0.5 0.3 -0.5 0.7 -0.5 0.3 -0.5 0.7 -0.5 0.3 -0.5 0.7 -0.5 0.6 -0.5 0.4 -0.5 0.3 -0.5 0.7 -0.5 0.3 -0.5 0.7 -0.5 0.3 -0.5 0.7 -0.5 0.3 -0.5 0.7 -0.5 0.3 -0.5 0.7 -0.5 0.6 -0.5 0.4 -0.5 0.3 -0.5 0.7 -0.5 0.3 -0.5 0.7 -0.5 0.3 -0.5 0.7 -0.5 0.3 -0.5 0.7 -0.5 0.3 -0.5 0.7 -0.5 0.6 -0.5 0.4 -0.5 0.3 -0.5 0.7 -0.5 0.3 -0.5 0.7 -0.5 0.3 -0.5 0.7 -0.5 0.3 -0.5 0.7 -0.5 0.3 -0.5 0.7 -0.5 0.6 -0.5 0.4 -0.11]		
New Loadshape.storageshape7		npts=96		interval=0.25		mult=[0.3 -0.5 0.7 -0.5 0.3 -0.5 0.7 -0.5 0.3 -0.5 0.7 -0.5 0.3 -0.5 0.7 -0.5 0.3 -0.5 0.7 -0.5 0.6 -0.5 0.4 -0.5 0.3 -0.5 0.7 -0.5 0.3 -0.5 0.7 -0.5 0.3 -0.5 0.7 -0.5 0.3 -0.5 0.7 -0.5 0.3 -0.5 0.7 -0.5 0.6 -0.5 0.4 -0.5 0.3 -0.5 0.7 -0.5 0.3 -0.5 0.7 -0.5 0.3 -0.5 0.7 -0.5 0.3 -0.5 0.7 -0.5 0.3 -0.5 0.7 -0.5 0.6 -0.5 0.4 -0.5 0.3 -0.5 0.7 -0.5 0.3 -0.5 0.7 -0.5 0.3 -0.5 0.7 -0.5 0.3 -0.5 0.7 -0.5 0.3 -0.5 0.7 -0.5 0.6 -0.5 0.4 -0.12]		
New Loadshape.storageshape8		npts=96		interval=0.25		mult=[0.3 -0.5 0.7 -0.5 0.3 -0.5 0.7 -0.5 0.3 -0.5 0.7 -0.5 0.3 -0.5 0.7 -0.5 0.3 -0.5 0.7 -0.5 0.6 -0.5 0.4 -0.5 0.3 -0.5 0.7 -0.5 0.3 -0.5 0.7 -0.5 0.3 -0.5 0.7 -0.5 0.3 -0.5 0.7 -0.5 0.3 -0.5 0.7 -0.5 0.6 -0.5 0.4 -0.5 0.3 -0.5 0.7 -0.5 0.3 -0.5 0.7 -0.5 0.3 -0.5 0.7 -0.5 0.3 -0.5 0.7 -0.5 0.3 -0.5 0.7 -0.5 0.6 -0.5 0.4 -0.5 0.3 -0.5 0.7 -0.5 0.3 -0.5 0.7 -0.5 0.3 -0.5 0.7 -0.5 0.3 -0.5 0.7 -0.5 0.3 -0.5 0.7 -0.5 0.6 -0.5 0.4 -0.13]		
New Loadshape.storageshape9		npts=96		interval=0.25		mult=[0.3 -0.5 0.7 -0.5 0.3 -0.5 0.7 -0.5 0.3 -0.5 0.7 -0.5 0.3 -0.5 0.7 -0.5 0.3 -0.5 0.7 -0.5 0.6 -0.5 0.4 -0.5 0.3 -0.5 0.7 -0.5 0.3 -0.5 0.7 -0.5 0.3 -0.5 0.7 -0.5 0.3 -0.5 0.7 -0.5 0.3 -0.5 0.7 -0.5 0.6 -0.5 0.4 -0.5 0.3 -0.5 0.7 -0.5 0.3 -0.5 0.7 -0.5 0.3 -0.5 0.7 -0.5 0.3 -0.5 0.7 -0.5 0.3 -0.5 0.7 -0.5 0.6 -0.5 0.4 -0.5 0.3 -0.5 0.7 -0.5 0.3 -0.5 0.7 -0.5 0.3 -0.5 0.7 -0.5 0.3 -0.5 0.7 -0.5 0.3 -0.5 0.7 -0.5 0.6 -0.5 0.4 -0.14]		
New Loadshape.storageshape10		npts=96		interval=0.25		mult=[0.3 -0.5 0.7 -0.5 0.3 -0.5 0.7 -0.5 0.3 -0.5 0.7 -0.5 0.3 -0.5 0.7 -0.5 0.3 -0.5 0.7 -0.5 0.6 -0.5 0.4 -0.5 0.3 -0.5 0.7 -0.5 0.3 -0.5 0.7 -0.5 0.3 -0.5 0.7 -0.5 0.3 -0.5 0.7 -0.5 0.3 -0.5 0.7 -0.5 0.6 -0.5 0.4 -0.5 0.3 -0.5 0.7 -0.5 0.3 -0.5 0.7 -0.5 0.3 -0.5 0.7 -0.5 0.3 -0.5 0.7 -0.5 0.3 -0.5 0.7 -0.5 0.6 -0.5 0.4 -0.5 0.3 -0.5 0.7 -0.5 0.3 -0.5 0.7 -0.5 0.3 -0.5 0.7 -0.5 0.3 -0.5 0.7 -0.5 0.3 -0.5 0.7 -0.5 0.6 -0.5 0.4 -0.15]		
New Loadshape.storageshape11		npts=96		interval=0.25		mult=[0.3 -0.5 0.7 -0.5 0.3 -0.5 0.7 -0.5 0.3 -0.5 0.7 -0.5 0.3 -0.5 0.7 -0.5 0.3 -0.5 0.7 -0.5 0.6 -0.5 0.4 -0.5 0.3 -0.5 0.7 -0.5 0.3 -0.5 0.7 -0.5 0.3 -0.5 0.7 -0.5 0.3 -0.5 0.7 -0.5 0.3 -0.5 0.7 -0.5 0.6 -0.5 0.4 -0.5 0.3 -0.5 0.7 -0.5 0.3 -0.5 0.7 -0.5 0.3 -0.5 0.7 -0.5 0.3 -0.5 0.7 -0.5 0.3 -0.5 0.7 -0.5 0.6 -0.5 0.4 -0.5 0.3 -0.5 0.7 -0.5 0.3 -0.5 0.7 -0.5 0.3 -0.5 0.7 -0.5 0.3 -0.5 0.7 -0.5 0.3 -0.5 0.7 -0.5 0.6 -0.5 0.4 -0.16]		
New Loadshape.storageshape12		npts=96		interval=0.25		mult=[0.3 -0.5 0.7 -0.5 0.3 -0.5 0.7 -0.5 0.3 -0.5 0.7 -0.5 0.3 -0.5 0.7 -0.5 0.3 -0.5 0.7 -0.5 0.6 -0.5 0.4 -0.5 0.3 -0.5 0.7 -0.5 0.3 -0.5 0.7 -0.5 0.3 -0.5 0.7 -0.5 0.3 -0.5 0.7 -0.5 0.3 -0.5 0.7 -0.5 0.6 -0.5 0.4 -0.5 0.3 -0.5 0.7 -0.5 0.3 -0.5 0.7 -0.5 0.3 -0.5 0.7 -0.5 0.3 -0.5 0.7 -0.5 0.3 -0.5 0.7 -0.5 0.6 -0.5 0.4 -0.5 0.3 -0.5 0.7 -0.5 0.3 -0.5 0.7 -0.5 0.3 -0.5 0.7 -0.5 0.3 -0.5 0.7 -0.5 0.3 -0.5 0.7 -0.5 0.6 -0.5 0.4 -0.15]		
New Loadshape.storageshape13		npts=96		interval=0.25		mult=[0.3 -0.5 0.7 -0.5 0.3 -0.5 0.7 -0.5 0.3 -0.5 0.7 -0.5 0.3 -0.5 0.7 -0.5 0.3 -0.5 0.7 -0.5 0.6 -0.5 0.4 -0.5 0.3 -0.5 0.7 -0.5 0.3 -0.5 0.7 -0.5 0.3 -0.5 0.7 -0.5 0.3 -0.5 0.7 -0.5 0.3 -0.5 0.7 -0.5 0.6 -0.5 0.4 -0.5 0.3 -0.5 0.7 -0.5 0.3 -0.5 0.7 -0.5 0.3 -0.5 0.7 -0.5 0.3 -0.5 0.7 -0.5 0.3 -0.5 0.7 -0.5 0.6 -0.5 0.4 -0.5 0.3 -0.5 0.7 -0.5 0.3 -0.5 0.7 -0.5 0.3 -0.5 0.7 -0.5 0.3 -0.5 0.7 -0.5 0.3 -0.5 0.7 -0.5 0.6 -0.5 0.4 -0.16]		
New Loadshape.storageshape14		npts=96		interval=0.25		mult=[0.3 -0.5 0.7 -0.5 0.3 -0.5 0.7 -0.5 0.3 -0.5 0.7 -0.5 0.3 -0.5 0.7 -0.5 0.3 -0.5 0.7 -0.5 0.6 -0.5 0.4 -0.5 0.3 -0.5 0.7 -0.5 0.3 -0.5 0.7 -0.5 0.3 -0.5 0.7 -0.5 0.3 -0.5 0.7 -0.5 0.3 -0.5 0.7 -0.5 0.6 -0.5 0.4 -0.5 0.3 -0.5 0.7 -0.5 0.3 -0.5 0.7 -0.5 0.3 -0.5 0.7 -0.5 0.3 -0.5 0.7 -0.5 0.3 -0.5 0.7 -0.5 0.6 -0.5 0.4 -0.5 0.3 -0.5 0.7 -0.5 0.3 -0.5 0.7 -0.5 0.3 -0.5 0.7 -0.5 0.3 -0.5 0.7 -0.5 0.3 -0.5 0.7 -0.5 0.6 -0.5 0.4 -0.15]		
New Loadshape.storageshape15		npts=96		interval=0.25		mult=[0.3 -0.5 0.7 -0.5 0.3 -0.5 0.7 -0.5 0.3 -0.5 0.7 -0.5 0.3 -0.5 0.7 -0.5 0.3 -0.5 0.7 -0.5 0.6 -0.5 0.4 -0.5 0.3 -0.5 0.7 -0.5 0.3 -0.5 0.7 -0.5 0.3 -0.5 0.7 -0.5 0.3 -0.5 0.7 -0.5 0.3 -0.5 0.7 -0.5 0.6 -0.5 0.4 -0.5 0.3 -0.5 0.7 -0.5 0.3 -0.5 0.7 -0.5 0.3 -0.5 0.7 -0.5 0.3 -0.5 0.7 -0.5 0.3 -0.5 0.7 -0.5 0.6 -0.5 0.4 -0.5 0.3 -0.5 0.7 -0.5 0.3 -0.5 0.7 -0.5 0.3 -0.5 0.7 -0.5 0.3 -0.5 0.7 -0.5 0.3 -0.5 0.7 -0.5 0.6 -0.5 0.4 -0.16]		
New Loadshape.storageshape16		npts=96		interval=0.25		mult=[0.3 -0.5 0.7 -0.5 0.3 -0.5 0.7 -0.5 0.3 -0.5 0.7 -0.5 0.3 -0.5 0.7 -0.5 0.3 -0.5 0.7 -0.5 0.6 -0.5 0.4 -0.5 0.3 -0.5 0.7 -0.5 0.3 -0.5 0.7 -0.5 0.3 -0.5 0.7 -0.5 0.3 -0.5 0.7 -0.5 0.3 -0.5 0.7 -0.5 0.6 -0.5 0.4 -0.5 0.3 -0.5 0.7 -0.5 0.3 -0.5 0.7 -0.5 0.3 -0.5 0.7 -0.5 0.3 -0.5 0.7 -0.5 0.3 -0.5 0.7 -0.5 0.6 -0.5 0.4 -0.5 0.3 -0.5 0.7 -0.5 0.3 -0.5 0.7 -0.5 0.3 -0.5 0.7 -0.5 0.3 -0.5 0.7 -0.5 0.3 -0.5 0.7 -0.5 0.6 -0.5 0.4 -0.15]		
New Loadshape.storageshape17		npts=96		interval=0.25		mult=[0.3 -0.5 0.7 -0.5 0.3 -0.5 0.7 -0.5 0.3 -0.5 0.7 -0.5 0.3 -0.5 0.7 -0.5 0.3 -0.5 0.7 -0.5 0.6 -0.5 0.4 -0.5 0.3 -0.5 0.7 -0.5 0.3 -0.5 0.7 -0.5 0.3 -0.5 0.7 -0.5 0.3 -0.5 0.7 -0.5 0.3 -0.5 0.7 -0.5 0.6 -0.5 0.4 -0.5 0.3 -0.5 0.7 -0.5 0.3 -0.5 0.7 -0.5 0.3 -0.5 0.7 -0.5 0.3 -0.5 0.7 -0.5 0.3 -0.5 0.7 -0.5 0.6 -0.5 0.4 -0.5 0.3 -0.5 0.7 -0.5 0.3 -0.5 0.7 -0.5 0.3 -0.5 0.7 -0.5 0.3 -0.5 0.7 -0.5 0.3 -0.5 0.7 -0.5 0.6 -0.5 0.4 -0.16]		
New Loadshape.storageshape18		npts=96		interval=0.25		mult=[0.3 -0.5 0.7 -0.5 0.3 -0.5 0.7 -0.5 0.3 -0.5 0.7 -0.5 0.3 -0.5 0.7 -0.5 0.3 -0.5 0.7 -0.5 0.6 -0.5 0.4 -0.5 0.3 -0.5 0.7 -0.5 0.3 -0.5 0.7 -0.5 0.3 -0.5 0.7 -0.5 0.3 -0.5 0.7 -0.5 0.3 -0.5 0.7 -0.5 0.6 -0.5 0.4 -0.5 0.3 -0.5 0.7 -0.5 0.3 -0.5 0.7 -0.5 0.3 -0.5 0.7 -0.5 0.3 -0.5 0.7 -0.5 0.3 -0.5 0.7 -0.5 0.6 -0.5 0.4 -0.5 0.3 -0.5 0.7 -0.5 0.3 -0.5 0.7 -0.5 0.3 -0.5 0.7 -0.5 0.3 -0.5 0.7 -0.5 0.3 -0.5 0.7 -0.5 0.6 -0.5 0.4 -0.15]		
New Loadshape.storageshape19		npts=96		interval=0.25		mult=[0.3 -0.5 0.7 -0.5 0.3 -0.5 0.7 -0.5 0.3 -0.5 0.7 -0.5 0.3 -0.5 0.7 -0.5 0.3 -0.5 0.7 -0.5 0.6 -0.5 0.4 -0.5 0.3 -0.5 0.7 -0.5 0.3 -0.5 0.7 -0.5 0.3 -0.5 0.7 -0.5 0.3 -0.5 0.7 -0.5 0.3 -0.5 0.7 -0.5 0.6 -0.5 0.4 -0.5 0.3 -0.5 0.7 -0.5 0.3 -0.5 0.7 -0.5 0.3 -0.5 0.7 -0.5 0.3 -0.5 0.7 -0.5 0.3 -0.5 0.7 -0.5 0.6 -0.5 0.4 -0.5 0.3 -0.5 0.7 -0.5 0.3 -0.5 0.7 -0.5 0.3 -0.5 0.7 -0.5 0.3 -0.5 0.7 -0.5 0.3 -0.5 0.7 -0.5 0.6 -0.5 0.4 -0.16]		
New Loadshape.storageshape20		npts=96		interval=0.25		mult=[0.3 -0.5 0.7 -0.5 0.3 -0.5 0.7 -0.5 0.3 -0.5 0.7 -0.5 0.3 -0.5 0.7 -0.5 0.3 -0.5 0.7 -0.5 0.6 -0.5 0.4 -0.5 0.3 -0.5 0.7 -0.5 0.3 -0.5 0.7 -0.5 0.3 -0.5 0.7 -0.5 0.3 -0.5 0.7 -0.5 0.3 -0.5 0.7 -0.5 0.6 -0.5 0.4 -0.5 0.3 -0.5 0.7 -0.5 0.3 -0.5 0.7 -0.5 0.3 -0.5 0.7 -0.5 0.3 -0.5 0.7 -0.5 0.3 -0.5 0.7 -0.5 0.6 -0.5 0.4 -0.5 0.3 -0.5 0.7 -0.5 0.3 -0.5 0.7 -0.5 0.3 -0.5 0.7 -0.5 0.3 -0.5 0.7 -0.5 0.3 -0.5 0.7 -0.5 0.6 -0.5 0.4 -0.15]		
New Loadshape.storageshape21		npts=96		interval=0.25		mult=[0.3 -0.5 0.7 -0.5 0.3 -0.5 0.7 -0.5 0.3 -0.5 0.7 -0.5 0.3 -0.5 0.7 -0.5 0.3 -0.5 0.7 -0.5 0.6 -0.5 0.4 -0.5 0.3 -0.5 0.7 -0.5 0.3 -0.5 0.7 -0.5 0.3 -0.5 0.7 -0.5 0.3 -0.5 0.7 -0.5 0.3 -0.5 0.7 -0.5 0.6 -0.5 0.4 -0.5 0.3 -0.5 0.7 -0.5 0.3 -0.5 0.7 -0.5 0.3 -0.5 0.7 -0.5 0.3 -0.5 0.7 -0.5 0.3 -0.5 0.7 -0.5 0.6 -0.5 0.4 -0.5 0.3 -0.5 0.7 -0.5 0.3 -0.5 0.7 -0.5 0.3 -0.5 0.7 -0.5 0.3 -0.5 0.7 -0.5 0.3 -0.5 0.7 -0.5 0.6 -0.5 0.4 -0.16]	
New Loadshape.storageshape22		npts=96		interval=0.25		mult=[0.3 -0.5 0.7 -0.5 0.3 -0.5 0.7 -0.5 0.3 -0.5 0.7 -0.5 0.3 -0.5 0.7 -0.5 0.3 -0.5 0.7 -0.5 0.6 -0.5 0.4 -0.5 0.3 -0.5 0.7 -0.5 0.3 -0.5 0.7 -0.5 0.3 -0.5 0.7 -0.5 0.3 -0.5 0.7 -0.5 0.3 -0.5 0.7 -0.5 0.6 -0.5 0.4 -0.5 0.3 -0.5 0.7 -0.5 0.3 -0.5 0.7 -0.5 0.3 -0.5 0.7 -0.5 0.3 -0.5 0.7 -0.5 0.3 -0.5 0.7 -0.5 0.6 -0.5 0.4 -0.5 0.3 -0.5 0.7 -0.5 0.3 -0.5 0.7 -0.5 0.3 -0.5 0.7 -0.5 0.3 -0.5 0.7 -0.5 0.3 -0.5 0.7 -0.5 0.6 -0.5 0.4 -0.15]		
New Loadshape.storageshape23		npts=96		interval=0.25		mult=[0.3 -0.5 0.7 -0.5 0.3 -0.5 0.7 -0.5 0.3 -0.5 0.7 -0.5 0.3 -0.5 0.7 -0.5 0.3 -0.5 0.7 -0.5 0.6 -0.5 0.4 -0.5 0.3 -0.5 0.7 -0.5 0.3 -0.5 0.7 -0.5 0.3 -0.5 0.7 -0.5 0.3 -0.5 0.7 -0.5 0.3 -0.5 0.7 -0.5 0.6 -0.5 0.4 -0.5 0.3 -0.5 0.7 -0.5 0.3 -0.5 0.7 -0.5 0.3 -0.5 0.7 -0.5 0.3 -0.5 0.7 -0.5 0.3 -0.5 0.7 -0.5 0.6 -0.5 0.4 -0.5 0.3 -0.5 0.7 -0.5 0.3 -0.5 0.7 -0.5 0.3 -0.5 0.7 -0.5 0.3 -0.5 0.7 -0.5 0.3 -0.5 0.7 -0.5 0.6 -0.5 0.4 -0.16]	
New Loadshape.storageshape24		npts=96		interval=0.25		mult=[0.3 -0.5 0.7 -0.5 0.3 -0.5 0.7 -0.5 0.3 -0.5 0.7 -0.5 0.3 -0.5 0.7 -0.5 0.3 -0.5 0.7 -0.5 0.6 -0.5 0.4 -0.5 0.3 -0.5 0.7 -0.5 0.3 -0.5 0.7 -0.5 0.3 -0.5 0.7 -0.5 0.3 -0.5 0.7 -0.5 0.3 -0.5 0.7 -0.5 0.6 -0.5 0.4 -0.5 0.3 -0.5 0.7 -0.5 0.3 -0.5 0.7 -0.5 0.3 -0.5 0.7 -0.5 0.3 -0.5 0.7 -0.5 0.3 -0.5 0.7 -0.5 0.6 -0.5 0.4 -0.5 0.3 -0.5 0.7 -0.5 0.3 -0.5 0.7 -0.5 0.3 -0.5 0.7 -0.5 0.3 -0.5 0.7 -0.5 0.3 -0.5 0.7 -0.5 0.6 -0.5 0.4 -0.15]		
New Loadshape.storageshape25		npts=96		interval=0.25		mult=[0.3 -0.5 0.7 -0.5 0.3 -0.5 0.7 -0.5 0.3 -0.5 0.7 -0.5 0.3 -0.5 0.7 -0.5 0.3 -0.5 0.7 -0.5 0.6 -0.5 0.4 -0.5 0.3 -0.5 0.7 -0.5 0.3 -0.5 0.7 -0.5 0.3 -0.5 0.7 -0.5 0.3 -0.5 0.7 -0.5 0.3 -0.5 0.7 -0.5 0.6 -0.5 0.4 -0.5 0.3 -0.5 0.7 -0.5 0.3 -0.5 0.7 -0.5 0.3 -0.5 0.7 -0.5 0.3 -0.5 0.7 -0.5 0.3 -0.5 0.7 -0.5 0.6 -0.5 0.4 -0.5 0.3 -0.5 0.7 -0.5 0.3 -0.5 0.7 -0.5 0.3 -0.5 0.7 -0.5 0.3 -0.5 0.7 -0.5 0.3 -0.5 0.7 -0.5 0.6 -0.5 0.4 -0.16]	
New Loadshape.storageshape26		npts=96		interval=0.25		mult=[0.3 -0.5 0.7 -0.5 0.3 -0.5 0.7 -0.5 0.3 -0.5 0.7 -0.5 0.3 -0.5 0.7 -0.5 0.3 -0.5 0.7 -0.5 0.6 -0.5 0.4 -0.5 0.3 -0.5 0.7 -0.5 0.3 -0.5 0.7 -0.5 0.3 -0.5 0.7 -0.5 0.3 -0.5 0.7 -0.5 0.3 -0.5 0.7 -0.5 0.6 -0.5 0.4 -0.5 0.3 -0.5 0.7 -0.5 0.3 -0.5 0.7 -0.5 0.3 -0.5 0.7 -0.5 0.3 -0.5 0.7 -0.5 0.3 -0.5 0.7 -0.5 0.6 -0.5 0.4 -0.5 0.3 -0.5 0.7 -0.5 0.3 -0.5 0.7 -0.5 0.3 -0.5 0.7 -0.5 0.3 -0.5 0.7 -0.5 0.3 -0.5 0.7 -0.5 0.6 -0.5 0.4 -0.15]		
New Loadshape.storageshape27		npts=96		interval=0.25		mult=[0.3 -0.5 0.7 -0.5 0.3 -0.5 0.7 -0.5 0.3 -0.5 0.7 -0.5 0.3 -0.5 0.7 -0.5 0.3 -0.5 0.7 -0.5 0.6 -0.5 0.4 -0.5 0.3 -0.5 0.7 -0.5 0.3 -0.5 0.7 -0.5 0.3 -0.5 0.7 -0.5 0.3 -0.5 0.7 -0.5 0.3 -0.5 0.7 -0.5 0.6 -0.5 0.4 -0.5 0.3 -0.5 0.7 -0.5 0.3 -0.5 0.7 -0.5 0.3 -0.5 0.7 -0.5 0.3 -0.5 0.7 -0.5 0.3 -0.5 0.7 -0.5 0.6 -0.5 0.4 -0.5 0.3 -0.5 0.7 -0.5 0.3 -0.5 0.7 -0.5 0.3 -0.5 0.7 -0.5 0.3 -0.5 0.7 -0.5 0.3 -0.5 0.7 -0.5 0.6 -0.5 0.4 -0.16]	
New Loadshape.storageshape28		npts=96		interval=0.25		mult=[0.3 -0.5 0.7 -0.5 0.3 -0.5 0.7 -0.5 0.3 -0.5 0.7 -0.5 0.3 -0.5 0.7 -0.5 0.3 -0.5 0.7 -0.5 0.6 -0.5 0.4 -0.5 0.3 -0.5 0.7 -0.5 0.3 -0.5 0.7 -0.5 0.3 -0.5 0.7 -0.5 0.3 -0.5 0.7 -0.5 0.3 -0.5 0.7 -0.5 0.6 -0.5 0.4 -0.5 0.3 -0.5 0.7 -0.5 0.3 -0.5 0.7 -0.5 0.3 -0.5 0.7 -0.5 0.3 -0.5 0.7 -0.5 0.3 -0.5 0.7 -0.5 0.6 -0.5 0.4 -0.5 0.3 -0.5 0.7 -0.5 0.3 -0.5 0.7 -0.5 0.3 -0.5 0.7 -0.5 0.3 -0.5 0.7 -0.5 0.3 -0.5 0.7 -0.5 0.6 -0.5 0.4 -0.15]		
New Loadshape.storageshape29		npts=96		interval=0.25		mult=[0.3 -0.5 0.7 -0.5 0.3 -0.5 0.7 -0.5 0.3 -0.5 0.7 -0.5 0.3 -0.5 0.7 -0.5 0.3 -0.5 0.7 -0.5 0.6 -0.5 0.4 -0.5 0.3 -0.5 0.7 -0.5 0.3 -0.5 0.7 -0.5 0.3 -0.5 0.7 -0.5 0.3 -0.5 0.7 -0.5 0.3 -0.5 0.7 -0.5 0.6 -0.5 0.4 -0.5 0.3 -0.5 0.7 -0.5 0.3 -0.5 0.7 -0.5 0.3 -0.5 0.7 -0.5 0.3 -0.5 0.7 -0.5 0.3 -0.5 0.7 -0.5 0.6 -0.5 0.4 -0.5 0.3 -0.5 0.7 -0.5 0.3 -0.5 0.7 -0.5 0.3 -0.5 0.7 -0.5 0.3 -0.5 0.7 -0.5 0.3 -0.5 0.7 -0.5 0.6 -0.5 0.4 -0.16]	
New Loadshape.storageshape30		npts=96		interval=0.25		mult=[0.3 -0.5 0.7 -0.5 0.3 -0.5 0.7 -0.5 0.3 -0.5 0.7 -0.5 0.3 -0.5 0.7 -0.5 0.3 -0.5 0.7 -0.5 0.6 -0.5 0.4 -0.5 0.3 -0.5 0.7 -0.5 0.3 -0.5 0.7 -0.5 0.3 -0.5 0.7 -0.5 0.3 -0.5 0.7 -0.5 0.3 -0.5 0.7 -0.5 0.6 -0.5 0.4 -0.5 0.3 -0.5 0.7 -0.5 0.3 -0.5 0.7 -0.5 0.3 -0.5 0.7 -0.5 0.3 -0.5 0.7 -0.5 0.3 -0.5 0.7 -0.5 0.6 -0.5 0.4 -0.5 0.3 -0.5 0.7 -0.5 0.3 -0.5 0.7 -0.5 0.3 -0.5 0.7 -0.5 0.3 -0.5 0.7 -0.5 0.3 -0.5 0.7 -0.5 0.6 -0.5 0.4 -0.15]		
New Loadshape.storageshape31		npts=96		interval=0.25		mult=[0.3 -0.5 0.7 -0.5 0.3 -0.5 0.7 -0.5 0.3 -0.5 0.7 -0.5 0.3 -0.5 0.7 -0.5 0.3 -0.5 0.7 -0.5 0.6 -0.5 0.4 -0.5 0.3 -0.5 0.7 -0.5 0.3 -0.5 0.7 -0.5 0.3 -0.5 0.7 -0.5 0.3 -0.5 0.7 -0.5 0.3 -0.5 0.7 -0.5 0.6 -0.5 0.4 -0.5 0.3 -0.5 0.7 -0.5 0.3 -0.5 0.7 -0.5 0.3 -0.5 0.7 -0.5 0.3 -0.5 0.7 -0.5 0.3 -0.5 0.7 -0.5 0.6 -0.5 0.4 -0.5 0.3 -0.5 0.7 -0.5 0.3 -0.5 0.7 -0.5 0.3 -0.5 0.7 -0.5 0.3 -0.5 0.7 -0.5 0.3 -0.5 0.7 -0.5 0.6 -0.5 0.4 -0.16]	
New Loadshape.storageshape32		npts=96		interval=0.25		mult=[0.3 -0.5 0.7 -0.5 0.3 -0.5 0.7 -0.5 0.3 -0.5 0.7 -0.5 0.3 -0.5 0.7 -0.5 0.3 -0.5 0.7 -0.5 0.6 -0.5 0.4 -0.5 0.3 -0.5 0.7 -0.5 0.3 -0.5 0.7 -0.5 0.3 -0.5 0.7 -0.5 0.3 -0.5 0.7 -0.5 0.3 -0.5 0.7 -0.5 0.6 -0.5 0.4 -0.5 0.3 -0.5 0.7 -0.5 0.3 -0.5 0.7 -0.5 0.3 -0.5 0.7 -0.5 0.3 -0.5 0.7 -0.5 0.3 -0.5 0.7 -0.5 0.6 -0.5 0.4 -0.5 0.3 -0.5 0.7 -0.5 0.3 -0.5 0.7 -0.5 0.3 -0.5 0.7 -0.5 0.3 -0.5 0.7 -0.5 0.3 -0.5 0.7 -0.5 0.6 -0.5 0.4 -0.15]		