New circuit.fgx924		bus1=fgx924_0		basekv=10		frequency=50		phases=3		MVAsc1=8.35		
